LAMMPS (23 Jun 2022 - Update 4)
KOKKOS mode is enabled (src/KOKKOS/kokkos.cpp:106)
  will use up to 1 GPU(s) per node
package kokkos
package kokkos newton on neigh half comm no

# REAX potential for high energy CHON systems
# .....

units           real

atom_style      charge
read_data       nptrepeat.data
Reading data file ...
  orthogonal box = (-0.81480622 -0.52838098 -504.75006) to (24.196108 21.129946 511.45806)
  reading atoms ...
  1600 atoms
  reading velocities ...
  1600 velocities

pair_style      reaxff lmp_control
pair_coeff      * * ffield.reax  C

neigh_modify    every 10 delay 0 check no

fix mynpt all npt temp 30 30 100 iso 1 1 1000
fix             2 all qeq/reaxff 1 0.0 10.0 1e-6 reaxff

dump            dumpxyz all xyz 750 graph_dump.xyz
dump_modify     dumpxyz element C
thermo 1000
variable mytemp equal temp
variable myvol equal vol
variable myeng equal etotal
fix myat1 all ave/time 10 10 100 v_mytemp file temperature.dat
fix myat2 all ave/time 10 10 100 v_myvol file volume.dat
fix myat3 all ave/time 10 10 100 v_myeng file energy.dat
variable myenthalpy equal enthalpy
fix myat4 all ave/time 10 10 100 v_myenthalpy file enthalpy.dat

timestep 0.25
run 40000

CITE-CITE-CITE-CITE-CITE-CITE-CITE-CITE-CITE-CITE-CITE-CITE-CITE

Your simulation uses code contributions which should be cited:

- pair reaxff command:

@Article{Aktulga12,
 author = {H. M. Aktulga, J. C. Fogarty, S. A. Pandit, A. Y. Grama},
 title = {Parallel reactive molecular dynamics: Numerical methods and algorithmic techniques},
 journal = {Parallel Computing},
 year =    2012,
 volume =  38,
 pages =   {245--259}
}

- fix qeq/reaxff command:

@Article{Aktulga12,
 author = {H. M. Aktulga, J. C. Fogarty, S. A. Pandit, A. Y. Grama},
 title = {Parallel reactive molecular dynamics: Numerical methods and algorithmic techniques},
 journal = {Parallel Computing},
 year =    2012,
 volume =  38,
 pages =   {245--259}
}

CITE-CITE-CITE-CITE-CITE-CITE-CITE-CITE-CITE-CITE-CITE-CITE-CITE

  update every 10 steps, delay 0 steps, check no
Step          Temp          E_pair         E_mol          TotEng         Press          Volume
0   28.859435     -322535.6       0             -322398.04      85.336789      550474.42
Averages over the last 21 of 41 rows, steps 20000 to 40000:
Temp E_pair E_mol TotEng Press Volume
30.1973 -322544 0 -322400 1.03611 550601
Loop time of 1102.88 on 1 procs for 40000 steps with 1600 atoms

write_data sampling_end.data
System init for write_data ...
